<?xml version="1.0" encoding="UTF-8"?>

<!-- generated on 2023-02-19 16:25:11 by Eclipse SUMO netedit Version 1.12.0
-->

<routes xmlns:xsi="http://www.w3.org/2001/XMLSchema-instance" xsi:noNamespaceSchemaLocation="http://sumo.dlr.de/xsd/routes_file.xsd">
    <vType id="bicycle" vClass="bicycle"/>
    <route id="bike_return" edges="-1 -2 -2.105"/>
    <route id="bike_there" edges="2 1"/>
    <flow id="f_0" type="DEFAULT_BIKETYPE" begin="0.00" route="bike_there" end="3600.00" vehsPerHour="1000.00"/>
    <flow id="f_1" begin="0.00" route="bike_there" end="3600.00" vehsPerHour="1800.00"/>
</routes>
