<?xml version="1.0" encoding="UTF-8"?>

<!-- generated on 03/04/20 13:41:41 by Eclipse SUMO netedit Version 1.5.0
<configuration xmlns:xsi="http://www.w3.org/2001/XMLSchema-instance" xsi:noNamespaceSchemaLocation="http://sumo.dlr.de/xsd/netconvertConfiguration.xsd">

    <input>
        <sumo-net-file value="C:\Research\Publications\2020_Operational%20model\sumo%20simulation\test_strecke.net.xml"/>
    </input>

    <output>
        <output-file value="C:\Research\Publications\2020_Operational%20model\sumo%20simulation\test_strecke.net.xml"/>
    </output>

    <processing>
        <geometry.min-radius.fix.railways value="false"/>
        <geometry.max-grade.fix value="false"/>
        <offset.disable-normalization value="true"/>
        <lefthand value="false"/>
    </processing>

    <junctions>
        <no-internal-links value="true"/>
        <no-turnarounds value="true"/>
        <junctions.corner-detail value="5"/>
        <junctions.limit-turn-speed value="5.5"/>
        <rectangular-lane-cut value="false"/>
    </junctions>

    <pedestrian>
        <walkingareas value="false"/>
    </pedestrian>

    <report>
        <aggregate-warnings value="5"/>
    </report>

</configuration>
-->

<net version="1.3" junctionCornerDetail="5" limitTurnSpeed="5.50" xmlns:xsi="http://www.w3.org/2001/XMLSchema-instance" xsi:noNamespaceSchemaLocation="http://sumo.dlr.de/xsd/net_file.xsd">

    <location netOffset="0.00,0.00" convBoundary="-100.00,60.00,80.00,60.00" origBoundary="-10000000000.00,-10000000000.00,10000000000.00,10000000000.00" projParameter="!"/>

    <edge id="exit" from="gneJ0" to="gneJ6" priority="-1">
        <lane id="exit_0" index="0" allow="bicycle" speed="13.89" length="30.00" width="2.00" shape="-70.00,61.00 -100.00,61.00"/>
    </edge>
    <edge id="test" from="gneJ1" to="gneJ0" priority="-1">
        <lane id="test_0" index="0" allow="bicycle" speed="13.89" length="150.00" width="2.00" shape="80.00,61.00 -70.00,61.00"/>
    </edge>

    <tlLogic id="gneJ0" type="static" programID="0" offset="0">
        <phase duration="30" state="G"/>
        <phase duration="3"  state="y"/>
        <phase duration="30" state="r"/>
    </tlLogic>

    <junction id="gneJ0" type="traffic_light" x="-70.00" y="60.00" incLanes="test_0" intLanes="" shape="-70.00,62.00 -70.00,60.00 -70.00,62.00" radius="2.00" rightOfWay="edgePriority">
        <request index="0" response="0" foes="0"/>
    </junction>
    <junction id="gneJ1" type="dead_end" x="80.00" y="60.00" incLanes="" intLanes="" shape="80.00,60.00 80.00,62.00"/>
    <junction id="gneJ6" type="dead_end" x="-100.00" y="60.00" incLanes="exit_0" intLanes="" shape="-100.00,62.00 -100.00,60.00"/>

    <connection from="test" to="exit" fromLane="0" toLane="0" tl="gneJ0" linkIndex="0" dir="s" state="O"/>

</net>
